[TITLE]
Hydraulic and Water Quality Analysis for Pipe Networks

[JUNCTIONS]
;ID              	Elev        	Demand      	Pattern         
 45              	5.32        	0.0102      	65              	;
 46              	5.51        	0.0002      	65              	;
 47              	5.15        	0.0158      	65              	;
 55              	5.58        	0.0175      	65              	;
 56              	5.35        	0.007       	65              	;
 57              	5.43        	0.0002      	65              	;
 58              	4.34        	0.0066      	65              	;
 59              	5.7         	0.0002      	65              	;
 60              	5.869       	0.0046      	65              	;
 61              	5.3         	0.007       	65              	;
 62              	5.69        	0.0032      	65              	;
 63              	6.17        	0.007       	65              	;
 64              	6.17        	0.0002      	65              	;
 65              	5.51        	0.0002      	65              	;
 66              	5.35        	0.0097      	65              	;
 67              	5.35        	0.0029      	65              	;
 68              	5.57        	0.0012      	65              	;
 69              	5.57        	0           	65              	;
 70              	5.62        	0.0015      	65              	;
 71              	5.39        	0.0095      	65              	;
 72              	5.01        	0.0117      	65              	;
 73              	5.17        	0.0095      	65              	;
 74              	5.17        	0.001       	65              	;
 75              	5.18        	0.009       	65              	;
 76              	5.68        	0.009       	65              	;
 77              	5.38        	0.0119      	65              	;
 78              	5.38        	0.0007      	65              	;
 79              	5.26        	0.0051      	65              	;
 80              	5.26        	0.0005      	65              	;
 81              	5.93        	0           	65              	;
 82              	5.93        	0.0102      	65              	;
 83              	5.93        	0           	65              	;
 84              	5.65        	0.001       	65              	;
 85              	5.91        	0.0002      	65              	;
 86              	5.07        	0.0022      	65              	;
 87              	6.18        	0.0022      	65              	;
 88              	5.42        	0.0024      	65              	;
 89              	5.42        	0.0107      	65              	;
 90              	5.9         	0           	65              	;
 91              	5.46        	0.0078      	65              	;
 92              	5.3         	0.0056      	65              	;
 93              	5.47        	0.0119      	65              	;
 94              	5.16        	0.0095      	65              	;
 95              	5.332       	0.0172      	65              	;
 96              	5.369       	0.0143      	65              	;
 97              	5.19        	0.0002      	65              	;
 98              	5.24        	0.0024      	65              	;
 99              	5.24        	0.0075      	65              	;
 126             	5.36        	0.0029      	65              	;
 127             	5.39        	0.0053      	65              	;
 128             	5.36        	0.0012      	65              	;
 129             	5.37        	0.0002      	65              	;
 130             	5.37        	0.0039      	65              	;
 239             	6.1         	0.0136      	65              	;
 240             	6           	0.0146      	65              	;
 241             	6           	0.0002      	65              	;
 242             	6           	0.001       	65              	;
 243             	5.948       	0.0061      	65              	;
 244             	6.08        	0.0017      	65              	;
 245             	6.24        	0.0216      	65              	;
 246             	6.243       	0.0024      	65              	;
 247             	6.23        	0.0002      	65              	;
 248             	6.49        	0.0017      	65              	;
 249             	6.49        	0.0153      	65              	;
 250             	6.23        	0.0036      	65              	;
 258             	7.21        	0           	65              	;
 468             	6.18        	0.0039      	65              	;
 469             	6.18        	0.0002      	65              	;
 470             	7.06        	0.0002      	65              	;
 471             	7.06        	0.0002      	65              	;
 472             	8.06        	0.0051      	65              	;
 473             	7.47        	0.0012      	65              	;
 474             	4.73        	0.0022      	65              	;
 579             	5.15        	0.0005      	65              	;
 589             	5.35        	0.0078      	65              	;
 590             	5.35        	0.0015      	65              	;
 591             	5.58        	0.001       	65              	;
 592             	5.28        	0.0087      	65              	;
 593             	5.27        	0.0146      	65              	;
 594             	5.27        	0.0015      	65              	;
 595             	5.35        	0.0172      	65              	;
 596             	5.35        	0.0027      	65              	;
 597             	5.179       	0.017       	65              	;
 598             	7           	0.0002      	65              	;
 599             	7           	0.0073      	65              	;
 600             	5.35        	0.0002      	65              	;
 601             	5.55        	0.0087      	65              	;
 602             	5.61        	0.007       	65              	;
 603             	5.61        	0.0002      	65              	;
 604             	5.31        	0.01        	65              	;
 605             	5.52        	0.001       	65              	;
 606             	5.39        	0.0005      	65              	;
 607             	5.52        	0.0002      	65              	;
 608             	5.77        	0.0194      	65              	;
 609             	5.71        	0.0124      	65              	;
 610             	5.27        	0.0155      	65              	;
 611             	5.85        	0           	65              	;
 612             	6.15        	0.008       	65              	;
 614             	5.58        	0.0005      	65              	;
 615             	5.34        	0.0119      	65              	;
 616             	5.95        	0.0138      	65              	;
 617             	5.69        	0.0027      	65              	;
 618             	5.9         	0.0092      	65              	;
 619             	5.45        	0.0032      	65              	;
 620             	5.21        	0.0126      	65              	;
 621             	5.56        	0.0039      	65              	;
 622             	6.73        	0.0056      	65              	;
 623             	5.63        	0.0005      	65              	;
 624             	5.21        	0.0012      	65              	;
 625             	5.47        	0.0002      	65              	;
 626             	5.48        	0.0046      	65              	;
 627             	5.48        	0.0002      	65              	;
 628             	5.78        	0.0124      	65              	;
 629             	5.12        	0.0049      	65              	;
 668             	5.43        	0.0051      	65              	;
 669             	5.43        	0.0017      	65              	;
 670             	5.36        	0.0032      	65              	;
 671             	5.36        	0.0002      	65              	;
 804             	5.24        	0.0002      	65              	;
 816             	5.55        	0.0087      	65              	;
 817             	5.35        	0.0002      	65              	;
 818             	6.21        	0.0189      	65              	;
 819             	6.21        	0.0005      	65              	;
 820             	5.43        	0.0034      	65              	;
 821             	5.3         	0.001       	65              	;
 822             	5.7         	0.0107      	65              	;
 823             	5.73        	0.0005      	65              	;
 824             	5.73        	0.0012      	65              	;
 825             	5.179       	0.0015      	65              	;
 826             	5.33        	0.0046      	65              	;
 827             	5.15        	0.0015      	65              	;
 828             	5.33        	0.0002      	65              	;
 829             	5.51        	0.0041      	65              	;
 830             	5.62        	0.0024      	65              	;
 831             	5.62        	0.0002      	65              	;
 832             	7           	0.0007      	65              	;
 833             	5.39        	0.0126      	65              	;
 834             	5.5         	0.01        	65              	;
 835             	5.75        	0.0039      	65              	;
 836             	5.71        	0.0005      	65              	;
 837             	5.85        	0.01        	65              	;
 838             	5.21        	0.0102      	65              	;
 839             	5.23        	0.0095      	65              	;
 840             	5.23        	0.001       	65              	;
 841             	5.3         	0.0053      	65              	;
 842             	5.3         	0           	65              	;
 843             	5.58        	0.0165      	65              	;
 844             	5.42        	0.008       	65              	;
 845             	5.39        	0.001       	65              	;
 846             	5.47        	0.0085      	65              	;
 847             	5.73        	0.0012      	65              	;
 848             	5.36        	0.009       	65              	;
 849             	5.63        	0.0126      	65              	;
 850             	5.36        	0.0002      	65              	;
 851             	5.47        	0.0005      	65              	;
 852             	5.4         	0.001       	65              	;
 853             	5.68        	0.0002      	65              	;
 854             	5.45        	0.0002      	65              	;
 886             	5.948       	0.0051      	65              	;
 887             	5.93        	0.0029      	65              	;
 888             	5.948       	0.0032      	65              	;
 889             	6.22        	0.007       	65              	;
 890             	6.08        	0.0126      	65              	;
 891             	6.08        	0           	65              	;
 892             	6.35        	0.0017      	65              	;
 893             	6.76        	0.0007      	65              	;
 894             	6.76        	0.0019      	65              	;
 895             	5.88        	0.0053      	65              	;
 896             	5.87        	0.0306      	65              	;
 900             	7.21        	0.0005      	65              	;
 984             	6.1         	0.0134      	65              	;
 985             	6.1         	0.0002      	65              	;
 986             	6.1         	0.0017      	65              	;
 987             	6.19        	0.0124      	65              	;
 988             	6.19        	0           	65              	;
 989             	6.27        	0.0002      	65              	;
 990             	6.08        	0.0112      	65              	;
 991             	6.243       	0.0112      	65              	;
 992             	6.24        	0.001       	65              	;
 993             	6.49        	0.0005      	65              	;
 994             	6.76        	0.0172      	65              	;
 995             	6.76        	0.0017      	65              	;
 996             	5.87        	0.0002      	65              	;
 997             	5.71        	0.0005      	65              	;
 998             	5.87        	0.0027      	65              	;
 1122            	5.51        	0.008       	65              	;
 1123            	5.15        	0.0073      	65              	;
 1136            	5.55        	0.0002      	65              	;
 1137            	5.35        	0.0002      	65              	;
 1138            	5.47        	0.0005      	65              	;
 1139            	5.57        	0.0136      	65              	;
 1140            	4.34        	0.0002      	65              	;
 1141            	5.3         	0.0075      	65              	;
 1142            	5.28        	0.0007      	65              	;
 1143            	5.35        	0.001       	65              	;
 1144            	5.37        	0.0131      	65              	;
 1145            	5.73        	0.0061      	65              	;
 1146            	5.33        	0.0015      	65              	;
 1147            	5.33        	0.0012      	65              	;
 1148            	7           	0.0075      	65              	;
 1149            	5.57        	0           	65              	;
 1150            	5.53        	0.0201      	65              	;
 1151            	6.73        	0.0002      	65              	;
 1152            	5.35        	0.0002      	65              	;
 1153            	5.37        	0.001       	65              	;
 1154            	5.89        	0.0041      	65              	;
 1155            	5.89        	0.0012      	65              	;
 1156            	5.54        	0.0022      	65              	;
 1157            	5.46        	0.0126      	65              	;
 1158            	5.46        	0.0005      	65              	;
 1159            	5.01        	0.0002      	65              	;
 1160            	5.51        	0.0051      	65              	;
 1161            	5.31        	0.001       	65              	;
 1162            	5.25        	0.009       	65              	;
 1163            	5.25        	0.001       	65              	;
 1164            	5.37        	0.0087      	65              	;
 1165            	5.37        	0.0012      	65              	;
 1166            	5.42        	0.0167      	65              	;
 1167            	5.42        	0.0005      	65              	;
 1168            	5.18        	0.0002      	65              	;
 1169            	5.52        	0.007       	65              	;
 1170            	5.68        	0.0002      	65              	;
 1171            	5.6         	0.0041      	65              	;
 1172            	5.24        	0.0163      	65              	;
 1173            	5.24        	0.001       	65              	;
 1174            	5.62        	0.0104      	65              	;
 1176            	5.58        	0.0017      	65              	;
 1177            	5.47        	0.0073      	65              	;
 1178            	5.45        	0.0027      	65              	;
 1179            	5.65        	0.0114      	65              	;
 1180            	5.91        	0.0087      	65              	;
 1181            	5.56        	0.0138      	65              	;
 1182            	5.38        	0.0005      	65              	;
 1183            	6.26        	0.0148      	65              	;
 1184            	5.39        	0.0032      	65              	;
 1185            	5.39        	0.0002      	65              	;
 1186            	5.42        	0.0002      	65              	;
 1187            	5.32        	0.0126      	65              	;
 1188            	5.68        	0.0112      	65              	;
 1189            	5.19        	0.0041      	65              	;
 1190            	5.34        	0           	65              	;
 1191            	5.36        	0.0002      	65              	;
 1192            	5.47        	0.0083      	65              	;
 1193            	5.38        	0.0102      	65              	;
 1194            	5.5         	0.01        	65              	;
 1195            	5.6         	0.0012      	65              	;
 1196            	5.34        	0.001       	65              	;
 1197            	5.67        	0.0049      	65              	;
 1198            	6.55        	0.0005      	65              	;
 1199            	6.14        	0.008       	65              	;
 1200            	6.87        	0.0034      	65              	;
 1205            	5.49        	0.0129      	65              	;
 1206            	5.19        	0.009       	65              	;
 1207            	6.69        	0.0075      	65              	;
 1208            	5.23        	0.0068      	65              	;
 1209            	6.01        	0.0027      	65              	;
 1210            	5.62        	0.001       	65              	;
 1211            	5.35        	0.0097      	65              	;
 1212            	5.27        	0.0005      	65              	;
 1213            	5.32        	0.0002      	65              	;
 1214            	5.13        	0.0007      	65              	;
 1215            	5.67        	0           	65              	;
 1216            	5.33        	0.0095      	65              	;
 1217            	5.19        	0.0012      	65              	;
 1240            	8.89        	0.0136      	65              	;
 1241            	5.58        	0.0005      	65              	;
 1242            	5.6         	0.0036      	65              	;
 1243            	5.8         	0.0002      	65              	;
 1244            	5.04        	0           	65              	;
 1245            	5.38        	0.0012      	65              	;
 1246            	6.49        	0.008       	65              	;
 1247            	5.29        	0.0104      	65              	;
 1248            	5.63        	0.0002      	65              	;
 1249            	5.49        	0.0049      	65              	;
 1250            	5.34        	0.0051      	65              	;
 1251            	5.63        	0.0032      	65              	;
 1252            	5.47        	0.0049      	65              	;
 1253            	6.21        	0.0044      	65              	;
 1254            	6.19        	0.0022      	65              	;
 1285            	6.28        	0.0073      	65              	;
 1286            	6.82        	0.0019      	65              	;
 1287            	5.71        	0.0015      	65              	;
 1288            	5.93        	0.0044      	65              	;
 1289            	5.44        	0.0044      	65              	;
 1290            	5.57        	0.0323      	65              	;
 1400            	6.53        	0.0002      	65              	;
 1401            	5.3         	0.0002      	65              	;
 1402            	5.09        	0.0002      	65              	;
 1403            	5.99        	0.0165      	65              	;
 1404            	5.32        	0           	                	;
 1405            	5.29        	0           	                	;
 1406            	5.19        	0           	                	;
 1407            	5.29        	0           	                	;
 1408            	5.32        	0           	                	;
 1409            	5.25        	0           	                	;
 174691          	0           	0           	                	;
 1491            	5.52        	0.017       	65              	;
 1492            	5.25        	0.001       	65              	;
 1493            	5.3         	0.0087      	65              	;
 1494            	5.47        	0.0002      	65              	;
 1495            	5.3         	0.0061      	65              	;
 1496            	5.18        	0.0109      	65              	;
 1497            	5.5         	0.0036      	65              	;
 1498            	5.34        	0.0095      	65              	;
 174692          	0           	0           	                	;
 1499            	5.49        	0.0005      	65              	;
 1500            	5.34        	0.0041      	65              	;
 1501            	5.34        	0.0002      	65              	;
 1502            	5.93        	0.0085      	65              	;
 1503            	5.41        	0.0112      	65              	;
 1513            	5.36        	0.0053      	65              	;
 1514            	5.41        	0.0155      	65              	;
 1515            	8.37        	0.0267      	65              	;
 1516            	5.01        	0.0109      	65              	;
 1517            	5.23        	0.0002      	65              	;
 1518            	5.82        	0.001       	65              	;
 1519            	6.01        	0.0005      	65              	;
 1527            	5.36        	0.016       	65              	;
 1528            	5.39        	0.001       	65              	;
 1529            	5.37        	0.0032      	65              	;
 1668            	6.63        	0           	65              	;
 1669            	7.85        	0.0002      	65              	;
 1670            	5.54        	0.0002      	65              	;
 1671            	5.53        	0.0143      	65              	;
 1672            	5.26        	0.001       	65              	;
 1673            	5.09        	0.0828      	59              	;
 1674            	5.27        	0.0112      	65              	;
 1675            	5.36        	0.0075      	65              	;
 1808            	5.36        	0.0029      	65              	;
 1809            	5.24        	0.001       	65              	;
 1810            	5.24        	0.0095      	65              	;
 1811            	5.24        	0.0022      	65              	;
 1812            	5.37        	0.0005      	65              	;
 1813            	5.77        	0.0005      	65              	;
 1814            	5.38        	0.0002      	65              	;
 1815            	6.39        	0.0095      	65              	;
 1816            	5.93        	0.0002      	65              	;
 1817            	5.72        	0.0027      	65              	;
 1818            	5.72        	0.0002      	65              	;
 1819            	5.96        	0.0007      	65              	;
 1822            	5.625       	0.0301      	65              	;
 1823            	5.82        	0.024       	65              	;
 1824            	5.15        	0.0029      	65              	;
 1825            	5.15        	0.0041      	65              	;
 1826            	5.29        	0.0053      	65              	;
 1827            	5.62        	0.0117      	65              	;
 1828            	5.72        	0.0063      	65              	;
 1829            	5.67        	0.0029      	65              	;
 1830            	5.54        	0.0049      	65              	;
 1831            	5.32        	0.0138      	65              	;
 1832            	5.72        	0.0007      	65              	;
 1833            	5.39        	0.0005      	65              	;
 1834            	5.48        	0.0085      	65              	;
 1835            	5.52        	0.0005      	65              	;
 1836            	5.29        	0.0019      	65              	;
 1837            	5.53        	0.0175      	65              	;
 1848            	5.28        	0.0022      	65              	;
 1849            	5.28        	0.001       	65              	;
 1850            	5.59        	0.0211      	65              	;
 1851            	5.71        	0.0114      	65              	;
 1852            	5.67        	0.0034      	65              	;
 1853            	5.52        	0.0085      	65              	;
 1854            	5.39        	0.0078      	65              	;
 1855            	5.48        	0.0005      	65              	;
 1856            	5.29        	0.001       	65              	;
 1857            	5.29        	0.0005      	65              	;
 1858            	5.33        	0.0002      	65              	;
 1884            	5.91        	0.0022      	65              	;
 1885            	5.3         	0.0044      	65              	;
 1886            	5.81        	0.0049      	65              	;
 1887            	5.5         	0.0027      	65              	;
 1888            	6.41        	0.0068      	65              	;
 1889            	5.35        	0.0015      	65              	;
 1926            	7.56        	0.0068      	65              	;
 1927            	6.28        	0.0056      	65              	;
 1928            	5.71        	0.083       	65              	;
 1929            	5.93        	0.0685      	65              	;
 1930            	5.59        	0.018       	65              	;
 1931            	5.43        	0.0049      	65              	;
 1932            	5.43        	0.0015      	65              	;
 1936            	5.31        	0.0201      	65              	;
 1937            	5.47        	0.0005      	65              	;
 1938            	5.34        	0.0053      	65              	;
 1939            	5.31        	0.0075      	65              	;
 1940            	6.083       	0.0007      	65              	;
 1941            	7.56        	0.0002      	65              	;
 1942            	5.39        	0.001       	65              	;
 1943            	5.43        	0.0005      	65              	;
 1944            	5.5         	0.0007      	65              	;
 1991            	7.85        	0.0097      	65              	;
 1992            	7.06        	0.0029      	65              	;
 1993            	6.19        	0.0117      	65              	;
 1994            	7.47        	0.0007      	65              	;
 1995            	5.55        	0.0002      	65              	;
 1996            	5.3         	0.0119      	65              	;
 1997            	5.08        	0.001       	65              	;
 2065            	6.243       	0.0017      	65              	;
 2066            	6.243       	0.0005      	65              	;
 2067            	6.49        	0.0019      	65              	;
 2176            	5.05        	0.0124      	65              	;
 2177            	5.27        	0.0216      	65              	;
 2178            	5.99        	0           	65              	;
 2179            	6.23        	0.0002      	65              	;
 2180            	6.403       	0.0005      	65              	;
 2231            	5.46        	0           	65              	;
 2233            	5.46        	0.0027      	65              	;
 2380            	5.99        	0.0049      	65              	;
 2381            	5.3         	0.0112      	65              	;
 2382            	5.05        	0           	65              	;
 2383            	5.38        	0.0017      	65              	;
 2384            	5.33        	0           	                	;
 2385            	5.19        	0           	                	;
 2386            	5.29        	0           	                	;
 2387            	5.19        	0           	                	;
 2388            	5.32        	0           	                	;
 2389            	5.25        	0           	                	;
 2390            	5.28        	0           	                	;
 2391            	5.22        	0           	                	;
 2392            	5.45        	0           	65              	;
 2393            	5.45        	0.0012      	65              	;
 2394            	5.24        	0.0046      	65              	;
 2395            	5.18        	0.0027      	65              	;
 2396            	5.18        	0.0044      	65              	;
 2397            	5.09        	0.0063      	65              	;
 2398            	5.09        	0           	65              	;
 2399            	5.14        	0.0032      	65              	;
 2400            	5.12        	0.0044      	65              	;
 2401            	5.12        	0.0024      	65              	;
 2402            	5.24        	0.0114      	65              	;
 2403            	5.6         	0.0002      	65              	;
 2404            	5.38        	0.0085      	65              	;
 2405            	5.369       	0.0002      	65              	;
 2406            	5.4         	0.0053      	65              	;
 2407            	5.32        	0.0005      	65              	;
 2408            	5.78        	0.0002      	65              	;
 2409            	5.332       	0.0002      	65              	;
 2453            	6.1         	0.0005      	65              	;
 2454            	6           	0.0015      	65              	;
 2455            	5.948       	0.0005      	65              	;
 2456            	6.08        	0.0019      	65              	;
 2457            	6.24        	0.0002      	65              	;
 2458            	6.24        	0.0005      	65              	;
 2459            	6.243       	0.0005      	65              	;
 2460            	6.49        	0.0112      	65              	;
 2461            	6.49        	0.0002      	65              	;
 2462            	6.403       	0.0218      	65              	;
 2463            	6.403       	0.0002      	65              	;
 2509            	5.22        	0           	                	;
 2510            	5.22        	0           	                	;
 2511            	5.15        	0           	                	;
 2512            	5.29        	0.0036      	65              	;
 2513            	5.45        	0.0002      	65              	;
 2514            	5.2         	0           	65              	;
 2515            	5.18        	0.001       	65              	;
 2516            	5.12        	0           	65              	;
 2517            	5.37        	0.0075      	65              	;
 2518            	5.37        	0.0022      	65              	;
 2519            	5.37        	0.0005      	65              	;
 2520            	5.35        	0           	65              	;
 2633            	5.18        	0.0024      	65              	;
 2634            	5.12        	0.0024      	65              	;
 2635            	5.13        	0           	65              	;
 2636            	5.13        	0.0019      	65              	;
 2637            	5.15        	0.0012      	65              	;
 2638            	5.23        	0           	65              	;
 2639            	5.36        	0.0017      	65              	;
 2823            	5.14        	0.0012      	65              	;
 2824            	5.35        	0.0012      	65              	;
 2825            	5.14        	0.0022      	65              	;
 2605            	5.26        	0.0073      	65              	;
 2606            	5.23        	0.0102      	65              	;
 2607            	5.33        	0.0015      	65              	;
 2608            	5.23        	0.0027      	65              	;
 2609            	5.31        	0.0015      	65              	;